         MACRO                                                          00090020
&NAME    DCB   &DDNAME=0,&MACRF=,                      FOUNDATION BLOCK*00180020
               &BFTEK=,&BFALN=,&EODAD=1,&RECFM=,&EXLST=0,     EXTENSION*00270020
               &BUFNO=0,&BUFCB=1,&BUFL=0,&DSORG=,&IOBAD=1,       COMMON*00360020
               &IMSK=,&UMSK=,&EOEA=0,&PCIA=0,                 EXCP APP1*00450020
               &SIOA=0,&CENDA=0,&XENDA=0,&AERR=0,&PGFX=NO,    EXCP APP2*00540000
               &HIARCHY=,                                              *00630020
               &OPTCD=,&SYNAD=1,&BLKSIZE=0,&NCP=0,&LRECL=0,&EROPT=,    *00720020
               &BUFRQ=0,&CLPS=1,&INTVL=0,&CPRI=,             QTAM LINE1*00810020
               &THRESH=,&CPOLL=,&LCBAD=1,                     QTAMLINE2*00900020
               &TRMAD=1,&SOWA=0,                             QTAM QUEUE*00990020
               &MON=,&MONDLY=,&WRU=,&IAM=,&EOM=,&EOT=,   BTAM/QTAM WTTA*01080020
               &LIMCT=0,                                           BDAM*01170020
               &NTM=0,&CYLOFL=0,&RKP=0,&MSWA=1,                  ISAM 1*01260020
               &SMSI=0,&SMSW=0,&MSHI=1,&DBUFNO=0,                ISAM 2*01350020
               &IMGADR=0,&SSRTN=0,&DCBHDR=0,&IMGRTE=0,          YL03123,01440002
               &QSAMEX=0,                                      @Y30GS11,01490003
               &DEVD=,&KEYLEN=,&TRTCH=,&DEN=,&ERRCNT=0,&FRID=,  YL03127,01530002
               &PRTSP=,&CODE=,&MODE=,&STACK=,                          *01620020
               &GNCP=1,&POLST=0,&GTYPE=EXPRESS,&ERROPT=,&LERB=,   13549*01710020
               &BUFCT=255,&REPOS=N,&TRANS=,&SCT=,&INVLIST=,&BUFOUT=,   *01800020
               &MH=,&PCI=,&BUFMAX=,&BUFIN=,&BUFSIZE=,&RESERVE=,        *01890020
               &BACKUP=NO,&BKUPDCB=0,&BRINGUP=NO,&DMPAUTO=NO,    ICB447*01900002
               &DUMPDCB=0,&IPLAUTO=NO,&IPLTXID=,&CKPTDCB=0,      ICB447*01910002
               &FUNC=,                                                 *01930021
               &READYQ=,                                        YA02128*01940002
               &BUFOFF=,                                     ICBI DCB-3*01980000
               &STOP=                                        ICBI DCB-3 02030000
.*                                                                      02070020
.*                      SET SYMBOL DECLARATIONS                         02160020
.*                                                                      02250020
         GBLA  &A0                                                      02340020
         GBLB  &DSORG0,&DSORG1,&DSORG2,&DSORG3,&DSORG4,&DSORG5,&DSORG6  02430020
         GBLB  &MACRFD,&MACRFE,&MACRFF,&MAC5,&MAC6,&MAC7,&FXSW,&RECFM0  02520020
         GBLB  &DSORG7,&MACRF0,&MACRF1,&MACRF2,&MACRF3,&MACRF4,&MACRF5  02610020
         GBLB  &MACRF6,&MACRF7,&MACRF8,&MACRF9,&MACRFA,&MACRFB,&MACRFC  02700020
         GBLB  &RECFM1,&RECFM2,&RECFM3,&RECFM4,&RECFM5,&RECFM6,&RECFM7  02790020
         GBLB  &OPTCD0,&OPTCD1,&OPTCD2,&OPTCD3,&OPTCD4,&OPTCD6,&OPTCD7  02880020
         GBLB  &DSORG9,&DSORGA                                          02970020
         GBLB  &COMSW,&MAC4,&DSORG8,&OPTCD5                        RER1 03060020
         LCLA  &A1,&A2,&B(4)                                      13549 03150020
         LCLB  &IFLGS4,&IFLGS5,&IFLGS6,&IFLGS7                          03240020
         LCLB  &B0,&B1,&B2,&B3,&B4,&B5,&B6,&B7                          03330020
         LCLB  &WTTFLG2,&WTTFLG3                                        03420020
         LCLC  &MTROFF,&EOMC,&EOTC                                      03510020
         LCLC  &C0,&C1,&ERROPTN,&C2                               13549 03600020
         LCLA  &BA1,&BA2                                                03690020
         LCLB  &BS2,&BS3,&BS4,&BS5,&BS6,&BS7,&BS8                       03780020
         LCLB  &BI                                                      03870020
         LCLA  &A4                                                      03960020
.* TCAM SUPPORT OPERANDS                                                04050020
         LCLA  &SCTAD,&ICDE,&INTFACE                                    04140020
         LCLB  &SW                                                      04230020
         LCLC  &TRNTBL,&TRNNO                                           04320020
         LCLA  &WRKA,&WRKB,&WRKC                                        04410020
         LCLA  &LGTH,&INCR,&NUMENT                                      04500020
         LCLA  &TC1                                                     04560021
         LCLC  &TC(4)                                                   04620021
.*                                                                      04680020
.* FUNC SUPPORT OPERANDS                                                04700021
         LCLA  &AFUNC,&AFUNC1,&AFUNC2,&AFUNC3,&AMODE                    04720021
         LCLC  &LFUNC                                                   04740021
.*                                                                      04750002
.*         OS/VS2 RELEASE 03 DELETIONS/CHANGES                          04752037
.*0000104400,116100,117900,144900-145800,152100,156600-157500, @ZA02213 04753037
.*0000162000-162900,197100,383400,471600-485100,546300,573300, @ZA02213 04754037
.*0000657000-658800,693900,694800,711900-715500,767700-768600  @ZA02213 04755037
.*0000587700                                                   @ZA10541 04756037
.*A000       SYSROUTE FROM OY14164                             @ZA13469 04756537
.*0000                                                         @ZA21103 04756737
.*D229050                                                      @ZA41552 04757037
.*C229050,D22950                                               @ZA43308 04757437
.*         OS/VS2 RELEASE 02 DELETIONS/CHANGES                          04758037
.*0000                                                         @ZA00022 04762002
.*0000                                                         @ZA00012 04764002
.*0000                                                         @ZA01331 04766002
.*0000286220,286240,286290                                     @Y30GS11 04766103
.*         OS/VS2 RELEASE 01 DELETIONS/CHANGES                          04770037
.*                                                              YA02128 04820002
.*         RELEASE 21 DELETIONS/CHANGES                                 04950020
.*                                                               A42398 04990021
.*0000833400                                                     A49372 05000021
.*         RELEASE 20 DELETIONS/CHANGES                                 05040020
.*  RESEQUENCED DCB IN RELEASE 20 TO ACCOMMODATE TCAM CHANGES    S20002 05130020
.*                                                               S20038 05220020
.*                                                               A34467 05240020
.*                                                               M0621  05260020
.*                                                               A33170 05280020
.*                                                               M0624  05290020
.*                                                               M0666  05300020
.*                                                                      05302002
         AIF   ('&DSORG' NE 'TR').IHB01  IF NOT DSORG = TR       ICB477 05304002
&NAME    IHB03 &BACKUP,&BKUPDCB,&BRINGUP,           EXPAND DSORG=TR DCBX05306002
               &DDNAME,&DMPAUTO,&DUMPDCB,&EXLST,                       X05308002
               &IPLAUTO,&IPLTXID,&MACRF,&CKPTDCB                 ICB477 05308402
         MEXIT                                                          05308802
.*                                                                      05310020
.*             ANALYZE DSORG, MACRF, RECFM, OPTCD AND NEGATIVE OFFSET   05400020
.*                                                                      05490020
.IHB01   IHB01 &DSORG,&MACRF,&BFTEK,&BFALN,&EODAD,&RECFM,&EXLST,       *05580002
               &BUFCB,&BUFL,&IOBAD,&EOEA,&PCIA,&SIOA,&CENDA,&XENDA,    *05670020
               &AERR,&PGFX,&OPTCD,&BUFNO,&DEVD,&REPOS                   05760000
         AIF   (&MACRF0 OR &MACRF1 OR &MACRF2 OR &MACRF3 OR &MACRF4 OR *05850020
               &MACRF5 OR &MACRF6 OR &MACRF7 OR &MACRF8 OR &MACRF9 OR &*05940020
               MACRFA OR &MACRFB OR &MACRFC OR &MACRFD).DGN0            06030020
         AIF   (&MACRFE OR &MACRFF).DGN0                                06120020
         IHBERMAC 171                                                   06210020
.* THE FOLLOWING LINE OF CODE PUTS THE NAME FOR THE DCB ON A FULL WORD  06240020
.* BOUNDARY IN CASE THERE IS A SEVERE ERROR WHICH WOULD INHIBIT DCB     06270020
.* EXPANSION.                                                           06300020
&NAME    DS    0F            GENERATED TO DEFINE NAME                   06330020
         MEXIT                                                          06390020
.*                      DIAGNOSE DEVICE SUB-PARAMETERS                  06480020
.*                                                                      06570020
.DGN0    AIF   (NOT &DSORG8).DGN00                                      06660020
&NAME    IHB02 &DSORG,&MACRF,&DDNAME,&EXLST,&GNCP,&POLST,&GTYPE         06750020
         AIF   ( T'&HIARCHY EQ 'O').GEN7C                               06840020
         IHBERMAC 190,HIARCHY             ERROR                         06930020
         AGO   .GEN7C                                                   07020020
.DGN00   AIF   (T'&KEYLEN EQ 'O' OR &DSORG0 OR &DSORG2 OR (&A0 LE 4 AND*07110020
                '&DEVD' NE 'TA' AND (&DSORG1 OR &DSORG6 OR &MACRF0))).D*07200020
               GN1                                                      07290020
         IHBERMAC 100,KEYLEN                                            07380020
.DGN1    AIF   (T'&CODE EQ 'O' OR '&DEVD' EQ 'PT').DGN2                 07470020
         AIF   ('&DEVD' EQ 'BS' AND &DSORG3).DGN2                       07560020
         IHBERMAC 101,CODE                                              07650020
.DGN2    AIF   ('&DEVD' EQ 'PC' OR '&DEVD' EQ 'RD').DGN3                07740020
         AIF   (T'&MODE EQ 'O').DGN2A                                   07830020
         AIF   ('&DEVD' EQ 'BS' AND &DSORG3).DGN2A                      07920020
         IHBERMAC 102,MODE                                              08010020
.DGN2A   AIF   (T'&STACK EQ 'O').DGN3                                   08100020
         IHBERMAC 103,STACK                                             08190020
.DGN3    AIF   (T'&PRTSP EQ 'O' OR '&DEVD' EQ 'PR').DGN4                08280020
         IHBERMAC 104,PRTSP                                             08370020
.DGN4    AIF   (T'&TRTCH EQ 'O' OR '&DEVD' EQ 'TA').DGN5                08460020
         IHBERMAC 105,TRTCH                                             08550020
.DGN5    AIF   (T'&DEN EQ 'O' OR '&DEVD' EQ 'TA').DGN6                  08640020
         IHBERMAC 106,DEN                                               08730020
.*                                                                      08820020
.*                      DIAGNOSE BTAM-QTAM OPERANDS                     08910020
.*                                                                      09000020
.DGN6    AIF   ('&DEVD' EQ 'WT' AND &DSORG3).DGN61                      09090020
         AIF   (T'&MON EQ 'O').DGN601                                   09180020
         IHBERMAC 107,MON                                               09270020
.DGN601  AIF   (T'&MONDLY EQ 'O').DGN602                                09360020
         IHBERMAC 108,MONDLY                                            09450020
.DGN602  AIF   (T'&WRU EQ 'O').DGN603                                   09540020
         IHBERMAC 109,WRU                                               09630020
.DGN603  AIF   (T'&IAM EQ 'O').DGN604                                   09720020
         IHBERMAC 110,IAM                                               09810020
.DGN604  AIF   (T'&EOM EQ 'O').DGN605                                   09900020
         IHBERMAC 111,EOM                                               09990020
.DGN605  AIF   (T'&EOT EQ 'O').DGN61                                    10080020
         IHBERMAC 112,EOT                                               10170020
.DGN61   ANOP                                                           10260020
         AIF   (&DSORG3 AND (&MACRF1 OR &MACRF9)).DGN6G                 10350020
         AIF   ('&BUFRQ' EQ '0').DGN6B                         @ZA02213 10440037
         IHBERMAC 107,BUFRQ                                             10530020
.DGN6B   AIF   ('&CLPS' EQ '1').DGN6C                                   10620020
         IHBERMAC 109,CLPS                                              10710020
.DGN6C   AIF   (&DSORG9 OR &DSORGA).DGN6D                               10800020
         AIF   ('&INTVL' EQ '0').DGN6D                                  10890020
         IHBERMAC 110,INTVL                                             10980020
.DGN6D   AIF   (&DSORG9 OR &DSORGA).DGN6E                               11070020
         AIF   (T'&CPRI EQ 'O').DGN6E                                   11160020
         IHBERMAC 111,CPRI                                              11250020
.DGN6E   ANOP                                                           11340020
.DGN6F   AIF   (T'&CPOLL EQ 'O').DGN6G                                  11430020
         IHBERMAC 113,CPOLL                                             11520020
.DGN6G   AIF   ('&SOWA' EQ '0').DGN6A                          @ZA02213 11610037
         IHBERMAC 114,SOWA                                              11700020
.DGN6A   AIF   ('&TRMAD' EQ '1').DGN6H                         @ZA02213 11790037
         IHBERMAC 108,TRMAD                                       13549 11880020
.DGN6H   ANOP                                                     13549 11970020
.* THIS CODE IS INTENDED TO ALLOW BOTH 'ERROPT' AND 'EROPT' SPELLING    12060020
.* FOR BTAM USERS.  ALL OTHER USERS WILL NOT BE PERMITTED TO USE        12150020
.* THIS SPELLING.                                                       12240020
.* DELETION OF THIS CODE WILL DISALLOW THAT SPELLING.                   12330020
         AIF   (&DSORG3 AND (&MACRF2 OR &MACRFA)).ISBTAM          13549 12420020
         AIF   (T'&ERROPT EQ 'O').DGN6I                           13549 12510020
         IHBERMAC 54,,ERROPT                                            12600020
         MEXIT                                                    13549 12690020
.ISBTAM  AIF   (T'&ERROPT EQ 'O').CKEROPT                         13549 12780020
&ERROPTN SETC  '&ERROPT'                                          13549 12870020
&A2      SETA  K'&ERROPT                                          13549 12960020
&C2      SETC  'ERROPT'                                           13549 13050020
         AGO   .DGN6I                                             13549 13140020
.CKEROPT ANOP                                                     13549 13230020
.* END OF CODE DELETION REGARDING 'ERROPT' KEYWORD.               13549 13320020
&C2      SETC  'EROPT'                                            13549 13410020
         AIF   (T'&EROPT EQ 'O').OMITTED                          13549 13500020
&ERROPTN SETC  '&EROPT'                                           13549 13590020
&A2      SETA  K'&EROPT                                           13549 13680020
         AGO   .DGN6I                                             13549 13770020
.OMITTED ANOP                                                     13549 13860020
&ERROPTN SETC  'E'                     ASSIGN BTAM STANDARD VALUE 13549 13950020
&A2      SETA  1                                                  13549 14040020
.DGN6I   ANOP                                                     13549 14130020
.*                                                                      14220020
.*                      DIAGNOSE COMMON OPERANDS                        14310020
.*                                                                      14400020
.DGN7    AIF   (&COMSW AND NOT (&DSORG3 AND (&MACRF1 OR &MACRF9))).DGN7*14401037
               C                                               @ZA02213 14402037
         AIF   ('&BUFNO' EQ '0').DGN7A                                  14670020
         IHBERMAC 115,BUFNO                                             14760020
.DGN7A   AIF   ('&BUFCB' EQ '1').DGN7B                                  14850020
         IHBERMAC 116,BUFCB                                             14940020
.DGN7B   AIF   ('&BUFL' EQ '0').DGN7C                                   15030020
         IHBERMAC 117,BUFL                                              15120020
.DGN7C   AIF   ('&IOBAD' EQ '1' OR &DSORG3 OR &MACRF0).DGN7D   @ZA02213 15210037
         IHBERMAC 118,IOBAD                                             15300020
.*                                                                      15390020
.*                      DIAGNOSE EXTENSION OPERANDS                     15480020
.*                                                                      15570020
.DGN7D   AIF   (&FXSW AND NOT (&DSORG3 AND (&MACRF1 OR &MACRF9))).DGN7I 15571037
.*                                                             @ZA02213 15572037
         AIF   (T'&BFTEK EQ 'O').DGN7E                                  15840020
         IHBERMAC 119,BFTEK                                             15930020
.DGN7E   AIF   (T'&BFALN EQ 'O').DGN7F                                  16020020
         IHBERMAC 120,BFALN                                             16110020
.DGN7F   AIF   ('&EODAD' EQ '1').DGN7G                         @ZA02213 16200037
         IHBERMAC 121,EODAD                                             16380020
.DGN7G   AIF   (T'&RECFM EQ 'O').DGN7H                                  16470020
         IHBERMAC 122,RECFM                                             16560020
.DGN7H   AIF   ('&EXLST' EQ '0' OR &DSORG3).DGN7I                       16650020
         IHBERMAC 123,EXLST                                             16740020
.DGN7I   AIF   ('&DDNAME' NE '0').DGN7J                                 16830020
         IHBERMAC 167                                                   16920020
         AGO   .DGN7L                                                   17010020
.DGN7J   AIF   (K'&DDNAME LE 8).DGN7K                                   17100020
         IHBERMAC 168                                                   17190020
.DGN7K   ANOP                'DDNAME SHORT' MSG REMOVED            MCOK 17280020
.*                                                                      17370020
.*                      DIAGNOSE EXCP INTERFACE OPERANDS                17460020
.*                                                                      17550020
.DGN7L   AIF   (&MACRF0).DGN7T                                          17640020
         AIF   (T'&IMSK EQ 'O').DGN7M                                   17730020
         IHBERMAC 124,IMSK                                              17820020
.DGN7M   AIF   (T'&UMSK EQ 'O').DGN7N                                   17910020
         IHBERMAC 125,UMSK                                              18000020
.DGN7N   AIF   ('&EOEA' EQ '0').DGN7O                                   18090020
         IHBERMAC 126,EOEA                                              18180020
.DGN7O   AIF   ('&PCIA' EQ '0').DGN7P                                   18270020
         IHBERMAC 127,PCIA                                              18360020
.DGN7P   AIF   ('&SIOA' EQ '0').DGN7Q                                   18450020
         IHBERMAC 128,SIOA                                              18540020
.DGN7Q   AIF   ('&CENDA' EQ '0').DGN7R                                  18630020
         IHBERMAC 129,CENDA                                             18720020
.DGN7R   AIF   ('&XENDA' EQ '0').DGN7S                                  18810020
         IHBERMAC 130,XENDA                                             18900020
.DGN7S   AIF   ('&AERR' EQ '0').DGN7T                                   18990020
         IHBERMAC 131,AERR                                              19080020
.DGN7T   AIF   (T'&UMSK EQ 'O' OR '&AERR' NE '0' OR NOT &MACRF0).DGN7U  19170000
         IHBERMAC 175                                                   19260020
.DGN7U   AIF   ('&SIOA' NE '0' AND '&PGFX' NE 'YES').DGN8               19270000
         AIF   ('&SIOA' EQ '0' AND '&PGFX' NE 'YES').DGN8               19280000
         AIF   ('&SIOA' NE '0' AND '&PGFX' EQ 'YES').DGN8               19290000
         IHBERMAC 128,PGFX                                              19300000
.*                                                                      19350020
.*                      DIAGNOSE ACCESS METHOD INTERFACE OPERANDS       19440020
.*                                                                      19530020
.DGN8    AIF   (NOT &MACRF0 AND (&DSORG0 OR &DSORG1 OR &DSORG6)).DGN8D  19620020
         AIF   ('&SYNAD' EQ '1' OR &DSORG2).DGN8A              @ZA02213 19710037
         IHBERMAC 132,SYNAD                                             19800020
.DGN8A   AIF   ('&BLKSIZE' EQ '0' OR (&DSORG2 OR &DSORGA)).DGN8B        19890000
.*                                                           ICBI DCB-9 19940000
         IHBERMAC 133,BLKSIZE                                           19980020
.DGN8B   AIF   ('&NCP' EQ '0').DGN8C                                    20070020
         IHBERMAC 134,NCP                                               20160020
.DGN8C   AIF   ('&LRECL' EQ '0').DGN8D                                  20250020
         IHBERMAC 135,LRECL                                             20340020
.DGN8D   AIF   (T'&EROPT EQ 'O' OR (&DSORG1 OR &DSORG3)).DGN8E    13549 20430020
         IHBERMAC 136,EROPT                                             20520020
.DGN8E   AIF   ('&LIMCT' EQ '0' OR &DSORG2).DGN8F                       20610020
         IHBERMAC 137,LIMCT                                             20700020
.DGN8F   AIF   (&DSORG0).DGN9                                           20790020
         AIF   ('&NTM' EQ '0').DGN8G                                    20880020
         IHBERMAC 138,NTM                                               20970020
.DGN8G   AIF   ('&CYLOFL' EQ '0').DGN8H                                 21060020
         IHBERMAC 139,CYLOFL                                            21150020
.DGN8H   AIF   ('&RKP' EQ '0').DGN8I                                    21240020
         IHBERMAC 140,RKP                                               21330020
.DGN8I   AIF   ('&MSWA' EQ '1').DGN8J                                   21420020
         IHBERMAC 141,MSWA                                              21510020
.DGN8J   AIF   ('&SMSI' EQ '0').DGN8K                                   21600020
         IHBERMAC 142,SMSI                                              21690020
.DGN8K   AIF   ('&SMSW' EQ '0').DGN8L                                   21780020
         IHBERMAC 143,SMSW                                              21870020
.DGN8L   AIF   ('&MSHI' EQ '1').DGN8M                                   21960020
         IHBERMAC 144,MSHI                                              22050020
.DGN8M   AIF   ('&DBUFNO' EQ '0').DGN9                                  22140020
         IHBERMAC 145,DBUFNO                                            22230020
.DGN9    ANOP                                                           22320020
.*                                                                      22322021
.*             DIAGNOSE FUNC OPERAND                                    22324021
.*                                                                      22326021
&AFUNC   SETA  0                                                        22328021
         AIF   ('&FUNC' EQ '').DGN90Z                                   22330021
&AFUNC1  SETA  K'&FUNC                                                  22332021
         AIF   ('&DEVD' EQ 'RD' OR '&DEVD' EQ 'PC').DGN90A     @ZA00022 22332302
         IHBERMAC 100,FUNC   IHB050 FUNC INCONSISTENT--IGNORED @ZA00022 22332902
.DGN90A  ANOP                                                           22334021
&AFUNC2  SETA  2                                                        22336021
&AFUNC3  SETA  7                                                        22338021
.DGN90C  AIF   ('&FUNC'(&AFUNC1,1) EQ 'IRPWDXT'(&AFUNC3,1)).DGN90E      22340021
&AFUNC3  SETA  &AFUNC3-1                                                22342021
&AFUNC2  SETA  &AFUNC2+&AFUNC2                                          22344021
         AIF   (&AFUNC3 NE 0).DGN90C                                    22346021
&LFUNC   SETC  '&FUNC'(&AFUNC1,1)                                       22348021
         MNOTE 12,'IBH0132 INVALID CHARACTER IN FUNC OPERAND-&LFUNC'    22350021
&AFUNC   SETA  0                                                        22352021
         AGO   .DGN90Z                                                  22354021
.DGN90E  ANOP                                                           22356021
&AFUNC   SETA  &AFUNC+&AFUNC2                                           22358021
&AFUNC1  SETA  &AFUNC1-1                                                22360021
         AIF   (&AFUNC1 NE 0).DGN90A                                    22362021
         AIF   (&AFUNC EQ 128 OR &AFUNC EQ 64 OR &AFUNC EQ 32).DGN90Z   22364021
         AIF   (&AFUNC EQ 16 OR &AFUNC EQ 18 OR &AFUNC EQ 22).DGN90Z    22366021
         AIF   (&AFUNC EQ 96 OR &AFUNC EQ 104 OR &AFUNC EQ 80).DGN90Z   22368021
         AIF   (&AFUNC EQ 82 OR &AFUNC EQ 86 OR &AFUNC EQ 48).DGN90Z    22370021
         AIF   (&AFUNC EQ 52 OR &AFUNC EQ 54 OR &AFUNC EQ 112).DGN90Z   22372021
         AIF   (&AFUNC EQ 116 OR &AFUNC EQ 118 OR &AFUNC EQ 120).DGN90Z 22374021
         AIF   (&AFUNC EQ 20 OR &AFUNC EQ 84).DGN90Z                    22376021
         MNOTE 12,'IHB0131 INVALID COMBINATION OF CHARACTERS IN FUNC OP*22378021
               ERAND-&FUNC'                                             22380021
&AFUNC   SETA  0                                                        22382021
.DGN90Z  ANOP                                                           22384021
.*                                                                      22410020
.*                      GENERATE ORIGIN OF DCB                          22500020
.*                                                                      22590020
         SPACE 2                                                        22680020
*                       DATA CONTROL BLOCK                              22770020
*                                                                       22860020
.* THE FOLLOWING LINES OF CODE CHECK TO SEE WHETHER THE ORG VALUE       22869020
.* CALCULATED BY IHB01 HAS A MEANING OTHER THAN ZERO.  IF THE VALUE     22878020
.* IS ZERO, THE ORG WILL NOT BE PERFORMED.  THE DCB WILL BE ALIGNED     22887020
.* TO A FULL WORD BOUNDARY.                           @ZA43308 @ZA41552 22896037
         AIF   (&A0 NE 0).DGN9A                                         22905037
&NAME    DC    0F'0'                   ORIGIN ON WORD BOUNDARY          22914020
         SPACE 1                                                        22923020
         AGO   .DGN9B                                                   22932020
.DGN9A   ANOP                                                           22941020
.*       ORG   *-&A0                   TO ELIMINATE UNUSED SPACE        22950037
&NAME    DS    0F'0'                    ORIGIN ON WORD BOUNDARY         23040020
         ORG   *+&A0                   TO ORIGIN GENERATION             23130020
         SPACE 1                                                        23220020
.DGN9B   ANOP                                                           23310020
         AIF   (&A0 EQ 40).GEN4A       IF NO COMMON OR EXTENSION        23400020
.*                                                                      23490020
.*                      GENERATE DEVICE DEPENDENCY INTERFACE            23580020
.*                                                                      23670020
         AIF   (&DSORG3 AND '&DEVD' EQ 'WT').GEN1Q                      23760020
         AIF   (&A0 GT 4).GEN10         IF NOT TA,DA,OR MR              23850020
&A1      SETA  16-&A0                                                   23940020
         AIF   ('&DEVD' NE 'TA').GEN1D   IF NOT TA                      24030020
*                       MAGNETIC TAPE DEVICE INTERFACE                  24120020
         SPACE 1                                                        24210020
         DC    BL&A1.'0'                NERRS,NOISE,UERRS,BLKCT         24300020
         AIF   (T'&TRTCH EQ 'O').TA1         IF TRTCH NOT SPECIFIED     24390020
         AIF   ('&TRTCH' EQ 'E' OR '&TRTCH' EQ 'T' OR '&TRTCH' EQ 'C' O*24480020
               R '&TRTCH' EQ 'ET' OR '&TRTCH' EQ 'TE').TA1  IF VALID    24570020
         IHBERMAC 150,TRTCH,&TRTCH                                      24660020
.*                                                                      24750020
.TA1     ANOP                                                           24840020
&B2      SETB  ('&TRTCH' EQ 'T' OR '&TRTCH' EQ 'E' OR '&TRTCH' EQ 'TE' *24930020
               OR '&TRTCH' EQ 'ET')                                     25020020
&B3      SETB  ('&TRTCH' EQ 'C' OR '&TRTCH' EQ 'T')                     25110020
&B4      SETB  ('&TRTCH' EQ 'T' OR '&TRTCH' EQ 'TE' OR '&TRTCH' EQ 'ET'*25200020
               )                                                        25290020
&B6      SETB  (&B2 OR &B3 OR &B4)                                      25380020