*  %/*                                                                  00000100
         MACRO                                                          00000200
&NAME   WTO    &MESG,&MF=I,&ROUTCDE=,&DESC=,&MSGTYP=,&MCSFLAG=,&QID=,&AX00000300
               REAID=,&TEXT=Č                                           00000400
.********************************************************************** 00000500
.*                                                                      00000600
.*       WTO - WRITE TO OPERATOR                                        00000700
.*                                                                      00000800
.*       INVOCATION - SPECIFY -  WTO MESG,ROUTCDE=,DESC=,MSGTYP=,       00000900
.*                            MCSFLAG=,QID=,AREAID=,MF=,TEXT=           00001000
.*              WHERE -                                                 00001100
.*                MESG     THE MESSAGE TEXT FOR A SINGLE OR             00001200
.*                         MULTIPLE LINE MESSAGE TO BE                  00001300
.*                         WRITTEN                                      00001400
.*                                                                      00001500
.*                ROUTCDE= ROUTING CODES TO BE ASSIGNED TO THE          00001600
.*                         MESSAGE                                      00001700
.*                                                                      00001800
.*                DESC=    DESCRIPTOR CODES TO BE ASSIGNED TO           00001900
.*                         THE MESSAGE                                  00002000
.*                                                                      00002100
.*                MSGTYP=  SPECIFIES HOW THE MESSAGE IS TO BE           00002200
.*                         ROUTED. VALID VALUES ARE:                    00002300
.*                         N,Y,SESS,JOBNAMES,STATUS,ACTIVE,             00002400
.*                         SHOW                                         00002500
.*                                                                      00002600
.*                MCSFLAG= SPECIFIES ATTRIBUTES OF THE                  00002700
.*                         MESSAGE. VALID VALUES ARE:                   00002800
.*                         REG0,RESP,REPLY,BRDCST,HRDCPY,               00002900
.*                         QREG0,NOTIME,NOCPY                           00003000
.*                                                                      00003100
.*                QID=     REMOTE ENTRY SERVICES (RSS) QUEUE            00003200
.*                         ID (OS/VS1 ONLY). PARAMETER ACCEPTED         00003300
.*                         BUT IGNORED BY MVS                           00003400
.*                                                                      00003500
.*                AREAID=  SPECIFIES A DISPLAY AREA ON THE              00003600
.*                         CONSOLE WHERE THE MESSAGE IS TO BE           00003700
.*                         WRITTEN.                                     00003800
.*                                                                      00003900
.*                MF=      SPECIFIES THE TYPE OF EXPANSION              00004000
.*                         REQUIRED. VALID VALUES ARE:                  00004100
.*                           I,L,E                                      00004200
.*                                                                      00004300
.*                TEXT=    SPECIFIES A DATA AREA CONTAINING A 2         00004400
.*                         BYTE MESSAGE LENGTH FIELD FOLLOWED BY        00004500
.*                         THE ACTUAL MESSAGE TEXT. IF A REGISTER       00004600
.*                         IS USED, THE REGISTER CONTAINS THE           00004700
.*                         ADDRESS OF THE DATA AREA. IF A FIELD         00004800
.*                         IS USED, THE ADDRESS OF THE FIELD IS         00004900
.*                         STORED IN THE WPL. THE TEXT KEYWORD IS       00005000
.*                         MUTUALLY EXCLUSIVE WITH INLINE               00005100
.*                         MESSAGE TEXT. EITHER TEXT OR INLINE          00005200
.*                         TEXT (BUT NOT BOTH) IS REQUIRED ON THE       00005300
.*                         STANDARD OR LIST FORM OF WTO                 00005400
.*                                                                      00005500
.*       FUNCTION - BUILDS ONE OF THREE POSSIBLE PARAMETER LIST         00005600
.*                  FORMATS AND/OR THE CODE WHICH WILL INVOKE           00005700
.*                  SVC 35 TO ISSUE THE MESSAGE.                        00005800
.*                  1. A STANDARD WPL IS BUILT IF INLINE TEXT IS        00005900
.*                     SPECIFIED AND NO ROUTING CODE GREATER THAN 16    00006000
.*                     IS SPECIFIED.                                    00006100
.*                  2. IF INLINE TEXT IS SPECIFIED AND A ROUTING CODE   00006200
.*                     GREATER THAN 16 IS SPECIFIED THEN AN EXTENDED    00006300
.*                     WPL VERSION 1 IS BUILT.                          00006400
.*                  3. IF THE TEXT OPERAND IS SPECIFIED THEN AN         00006500
.*                     EXTENDED WPL VERSION 2 IS GENERATED.             00006600
.*                                                                      00006700
.*       STATUS -                                                       00006800
.*       LASTUPD         = EBB1102  TYPE=ADD                            00006900
.*       LIBRARIES       = DISTLIB=AMACLIB                              00007000
.*       FMID            = FBB1221                                      00007100
.*       RMID            = UZ31484                                      00007200
.*       SYSMOD HISTORY  = SYSMOD   TYPE       DATE   MCS  STATUS       00007300
.*                         EBB1102  FUNCTION  00.000  MAC  ACC RGN      00007400
.*                         FBB1221  FUNCTION  00.000  MAC  ACC RGN      00007500
.*                                                                      00007600
.*       CHANGE ACTIVITY -                                              00007700
.*              ZP60039  - EXTENSIVE REVISION OF THE MACRO AND          00007800
.*                         SUPPORT FOR THE TEXT OPERAND WHICH           00007900
.*                         REQUIRES GENERATION OF AN EXTENDED WPL       00008000
.*                                                                      00008100
.********************************************************************** 00008200
         GBLB  &IHBWTL                                                  00008300
         LCLA  &LT(256),&H,&I,&II,&N,&J,&K,&LEN,&LLCNT                  00008400
         LCLA  &NUMENT                 NUMBER OF SUBLIST ENTRIES        00008500
         LCLA  &LENENT                 L'ENTRY                          00008600
         LCLB  &AD,&E,&E1,&E2,&E3,&E4,&E5,&E6,&MLW  MLWTO FLAGS         00008700
         LCLB  &SECONDL,&PAIR                                           00008800
         LCLC  &GNAME                                                   00008900
         LCLB  &RO(128),&DE(16),&MC(32),&MT(16)  FLAGS FOR THE FIELDS   00009000
         LCLC  &LOWNUM,&HIGHNUM        ROUTE RANGE NUMBERS              00009100
         LCLB  &GENRD                  GENERATE ROUT AND DESC FIELDS    00009200
         LCLB  &GENMT                  GENERATE MSGTYP FIELD            00009300
         LCLB  &GENXWPL                GENERATE AN XWPL                 00009400
         LCLA  &WPLXLEV                LEVEL OF XWPL TO GENERATE        00009500
         LCLB  &MTY,&MTN               FLAGS FOR MSGTYP PROCESSING      00009600
         ACTR  30000                                                    00009700
.*                                                                      00009800
.*       INITIALIZATION                                                 00009900
.*                                                                      00010000
&GNAME   SETC  'IHB'.'&SYSNDX'         FOR BAL INSTRUCTION              00010100
&WPLXLEV SETA  1                                                        00010200
.********************************************************************** 00010300
.*                                                                      00010400
.*       BEGIN PROCESSING PARAMETERS                                    00010500
.*                                                                      00010600
.********************************************************************** 00010700
.********************************************************************** 00010800
.*                                                                      00010900
.*        PROCESS ROUTING CODES                                         00011000
.*        DETERMINE IF ROUTING CODES HAVE BEEN SPECIFIED                00011100
.*                                                                      00011200
.*        ROUTING CODES 1-128 MAY BE SET HOWEVER FOR MVS 3.8 ONLY       00011300
.*        ONLY ROUTING CODES 1-16 WILL BE ACTIONED                      00011400
.*        ANY ROUTING CODE GREATER THAN 16 WILL BE IGNORED              00011500
.*        WITHOUT ERROR HOWEVER SPECIFYING A ROUTING CODE GREATER       00011600
.*        THAN 16 WILL CAUSE THE GENERATION OF AN EXTENDED FORMAT       00011700
.*        VERSION 1 WPL (XWPL).                                         00011800
.*                                                                      00011900
.********************************************************************** 00012000
         AIF   (T'&ROUTCDE EQ 'O').ENDROUT   ROUTING CODES APECIFIED ?  00012100
&GENRD   SETB  1                    ROUTING CODES PRESENT               00012200
&I       SETA  1                    INITIALIZE LIST INDEX               00012300
&NUMENT  SETA  N'&ROUTCDE           TOTAL NUMBER OF ENTRIES IN &ROUTCDE 00012400
.*       ROUTING CODE LOOP                                              00012500
.ROULOOP ANOP                                                           00012600
&LENENT  SETA  K'&ROUTCDE(&I)       SET L'CURRENT ELEMENT               00012700
         AIF   (&LENENT EQ 0).BADENT  NULL ENTRY, ERROR                 00012800
         AIF   (T'&ROUTCDE(&I) EQ 'N').ROUVAL   SINGLE NUMERIC VALUE    00012900
.*                                                                      00013000
.*       RANGE OF ROUTING CODES HAS BEEN SPECIFIED                      00013100
.*                                                                      00013200
.*       SCAN FOR DASH SEPERATOR                                        00013300
.*                                                                      00013400
&II      SETA  1                    INITIALIZE ELEMENT INDEX            00013500
.DASHL   ANOP                       DASH SCANNING LOOP                  00013600
         AIF   ('&ROUTCDE(&I)'(&II,1) EQ '-').DASHFND                   00013700
&II      SETA  &II+1                INCREMENT ELEMENT INDEX             00013800
         AIF   (&II GE &LENENT).BADRANG   CHECK INDEX POSITION          00013900
         AGO   .DASHL               LOOP AROUND FOR NEXT CHAR           00014000
.*       FOUND A DASH SEPERATOR                                         00014100
.DASHFND ANOP                                                           00014200
         AIF   (&II EQ 1).BADRANG         DASH UP FRONT ? ERROR         00014300
         AIF   (&II EQ &LENENT).BADRANG   DASH AT THE END ? ERROR       00014400
&LOWNUM  SETC  '&ROUTCDE(&I)'(1,&II-1) SET FIRST NUMBER OF RANGE        00014500
&HIGHNUM SETC  '&ROUTCDE(&I)'(&II+1,&LENENT-&II) SET SECOND NUMBER      00014600
.*       FIRST NUMBER > LAST NUMBER ? ERROR                             00014700
         AIF   ('&LOWNUM' GT '&HIGHNUM').BADRANG                        00014800
.*       OUTSIDE THE RANGE OF VALID ROUTING CODES ? ERROR               00014900
         AIF   ('&LOWNUM' LT '1' OR '&LOWNUM' GT '128' OR              X00015000
               '&HIGHNUM' LT '1' OR '&HIGHNUM' GT '128').BADRANG        00015100
&J       SETA  &LOWNUM              INITIALIZE START OF RANGE           00015200
&K       SETA  &HIGHNUM             INITIALIZE END OF RANGE             00015300
.*       LOOP TO SET ON ROUTING CODES                                   00015400
.*       IF ALREADY SET ON THEN ERROR                                   00015500
.RANLOOP ANOP                                                           00015600
         AIF   (&RO(&J)).BADRANG                                        00015700
&RO(&J)  SETB  1                    SET ROUTING CODE &J ON              00015800
         AIF   (&J LT 17).RANLOPA                                       00015900
&GENXWPL SETB  1                    ANY VALUE > 16 FORCES A XWPL        00016000
.RANLOPA ANOP                                                           00016100
&J       SETA  &J+1                 INCREMENT LOOP INDEX                00016200
         AIF   (&J LE &K).RANLOOP   LOOP THROUGH RANGE                  00016300
.*       RANGE PROCESSED                                                00016400
         AGO   .NEXTROU             DETERMINE NEXT ROUTING CODE         00016500
.*                                                                      00016600
.*       ROUTING CODE VALUE HAS BEEN SPECIFIED. VERIFY THAT IT IS       00016700
.*       WITHIN THE PROPER RANGE AND, IF SO, SET THE CORRECT BIT        00016800
.*                                                                      00016900
.ROUVAL  ANOP                                                           00017000
&J       SETA  &ROUTCDE(&I)         GET NEXT ROUTING CODE VALUE         00017100
         AIF   (&J GE 1 AND &J LE 128).ROUOK   VALID VALUE ?            00017200
         MNOTE 4,'ROUTCDE &J IS AN INVALID ROUTING CODE'                00017300
         AGO   .NEXTROU                                                 00017400
.ROUOK   ANOP                       VALID ROUTING CODE SPECIFIED        00017500
         AIF   (&RO(&J)).BADRANG                                        00017600
&RO(&J)  SETB  1                    SET ROUTING CODE &J ON              00017700
         AIF   (&J LT 17).NEXTROU                                       00017800
&GENXWPL SETB  1                    ANY VALUE > 16 FORCES A XWPL        00017900
&MC(12)  SETB  1                    SET MCS FLAG FOR XWPL (WPLMCSFL)    00018000
         AGO   .NEXTROU             LOOP TO NEXT VALUE                  00018100
.*       A NULL ROUTING CODE HAS BEEN SPECIFIED                         00018200
.*       ISSUE AN MNOTE AND SKIP TO THE NEXT ROUTING CODE               00018300
.BADENT  ANOP                                                           00018400
         MNOTE 4,'NULL ROUTING CODE SPECIFIED'                          00018500
         AGO   .NEXTROU                                                 00018600
.*       AN INVALID ROUTING CODE RANGE HAS BEEN SPECIFIED               00018700
.*       ISSUE AN MNOTE AND SKIP TO THE NEXT ROUTING CODE               00018800
.BADRANG ANOP                                                           00018900
         MNOTE 4,'INVALID RANGE OF ROUTING CODES IGNORED.'              00019000
.*       FALL THROUGH TO SETUP FOR NEXT VALUE                           00019100
.*                                                                      00019200
.*       SETUP TO PROCESS NEXT ROUTE CODE ENTRY                         00019300
.NEXTROU ANOP                                                           00019400
&I       SETA  &I+1                 INCREMENT INDEX TO ROUT CODE VALUES 00019500
         AIF   (&I LE &NUMENT).ROULOOP IF MORE CODES, CHECK NEXT ONE    00019600
.ENDROUT ANOP                       DONE WITH ROUTING CODES             00019700
.********************************************************************** 00019800
.*                                                                      00019900
.*        PROCESS DESCRIPTOR CODES                                      00020000
.*        DETERMINE IF DESCRIPTOR CODES HAVE BEEN SPECIFIED             00020100
.*                                                                      00020200
.********************************************************************** 00020300
         AIF   (T'&DESC EQ 'O').ENDDESC   NO DESCRIPTOR, BRANCH         00020400
&GENRD   SETB  1                 FORCE GENERATION OF DESC AND ROUTCDES  00020500
&NUMENT  SETA  N'&DESC           NUMBER OF ENTRIES                      00020600
&I       SETA  1                                                        00020700
&J       SETA  0                 COUNTER TO DETECT MUTUALLY EXCL VALUE  00020800
.DESCLOP ANOP                                                           00020900
&II      SETA  &DESC(&I)                                                00021000
         AIF   (&II GE 1 AND &II LE 16).DESCOK                          00021100
.DESCERR MNOTE 8,'DESC &N IS INVALID DESCRIPTOR - IGNORED'              00021200
         AGO   .NEXTDES                                                 00021300
.DESCOK  ANOP                                                           00021400
         AIF   (&DE(&II)).DESERR            ALREADY SPECIFIED           00021500
         AIF   (&II GT 6).DESCJMP                                       00021600
&J       SETA  &J+1                         A VALUE LOWER THAN 7 SPEC   00021700
.DESCJMP ANOP                                                           00021800
&DE(&II) SETB  1                                                        00021900
.NEXTDES ANOP                                                           00022000
&I       SETA  &I+1                         INCR ENTRY COUNTER          00022100
         AIF   (&I LE &NUMENT).DESCLOP      PROCESS NEXT ENTRY          00022200
.*       ALL ENTRIES PROCESSED                                          00022300
.*       TEST FOR ANY MUTUALLY EXCLUSIVE ENTRIES                        00022400
         AIF   (&J LT 2).ENDDESC            ALL OK                      00022500
         MNOTE 8,'DESC MUTUALLY EXCLUSIVE VALUE SPECIFIED'              00022600
         MEXIT                                                          00022700
.DESERR  MNOTE 8,'DUPLICATE DESCRIPTOR VALUE SPECIFIED'                 00022800
         MEXIT                                                          00022900
.ENDDESC ANOP                                                           00023000
.********************************************************************** 00023100
.*                                                                      00023200
.*       PROCESS MSGTYP PARAMETERS                                      00023300
.*       DETERMINE IF MSGTYP PARAMETERS HAVE BEEN SPECIFIED             00023400
.*       PARAMETERS -                                                   00023500
.*       Y        - GENERATES MSGTYP FIELD BUT IGNORES OTHER            00023600
.*                  PARAMETERS (ALL MSGTYP FLAGS ZERO)                  00023700
.*                  THIS MUST BE THE FIRST PARAMETER                    00023800
.*       N        - SUPPESSSES THE GENERATION OF THE MSGTYP             00023900
.*                  FIELD EVEN THOUGH OTHER PARAMETERS HAVE BEEN        00024000
.*                  SPECIFIED                                           00024100
.*                  THIS MUST BE THE FIRST PARAMETER                    00024200
.*       JOBNAMES -                                                     00024300
.*       STATUS   -                                                     00024400
.*       ACTIVE   -                                                     00024500
.*       SHOW     - FOR VS/1 CRJE SUPPORT                               00024600
.*       SESS     -                                                     00024700
.*       NOTE THAT THE MSGTYP FIELD WILL BE GENERATED AND THE           00024800
.*       WPLMSGTD FLAG WILL BE SET IF THE QID PARAMETER IS              00024900
.*       CODED ON THE WTO MACRO                                         00025000
.*                                                                      00025100
.********************************************************************** 00025200
         AIF   (T'&MSGTYP EQ 'O').ENDMSGT   MSGTYP PARAMS SPECIFIED ?   00025300
.*                                          YES, USE OF MSGTYPE FORCES  00025400
&GENRD   SETB  1                            GENERATION OF ROUT/DESC     00025500
&NUMENT  SETA  N'&MSGTYP                    NUMBER OF ENTRIES           00025600
         AIF   ('&MSGTYP(1)' NE 'N').MSGL1                              00025700
&MTN     SETB  1                            MSGTYP=N CODED              00025800
         AGO   .MSGL2                                                   00025900
.MSGL1   AIF   ('&MSGTYP(1)' NE 'Y').MSGL3  MSGTYP=Y CODED              00026000
&MTY     SETB  1                                                        00026100
.MSGL2   ANOP                               EITHER MSGTYP =Y/N CODED    00026200
&I       SETA  1                            FIRST PARAMETER PROCESSED   00026300
         AGO   .NEXTMSG                                                 00026400
.MSGL3   ANOP                                                           00026500
&I       SETA  0                                                        00026600
         AGO   .NEXTMSG                                                 00026700
.MSGTLOP ANOP                               LOOP THROUGH PARAMETERS     00026800
         AIF   ('&MSGTYP(&I)' NE 'JOBNAMES').MSGL4                      00026900
         AIF   (&MT(1)).MTERR               JOBNAMES ALREADY CODED ?    00027000
&MT(1)   SETB  1                            TURN ON JOBNAMES            00027100
         AGO   .NEXTMSG                                                 00027200
.MSGL4   ANOP                                                           00027300
         AIF   ('&MSGTYP(&I)' NE 'STATUS').MSGL5                        00027400
         AIF   (&MT(2)).MTERR               STATUS ALREADY CODED ?      00027500
&MT(2)   SETB  1                            TURN ON STATUS              00027600
         AGO   .NEXTMSG                                                 00027700
.MSGL5   ANOP                                                           00027800
         AIF   ('&MSGTYP(&I)' NE 'ACTIVE').MSGL6                        00027900
         AIF   (&MT(3)).MTERR               ACTIVE ALREADY CODED ?      00028000
&MT(3)   SETB  1                            TURN ON ACTIVE              00028100
         AGO   .NEXTMSG                                                 00028200
.MSGL6   ANOP                                                           00028300
         AIF   ('&MSGTYP(&I)' NE 'SHOW').MSGL7                          00028400
         AIF   (&MT(5)).MTERR               SHOW ALREADY CODED ?        00028500
&MT(5)   SETB  1                            TURN ON SHOW                00028600
         AGO   .NEXTMSG                                                 00028700
.MSGL7   ANOP                                                           00028800
         AIF   ('&MSGTYP(&I)' NE 'SESS').MTERR                          00028900
         AIF   (&MT(6)).MTERR               SESS ALREADY CODED ?        00029000
&MT(6)   SETB  1                            TURN ON SESS                00029100
.NEXTMSG ANOP                                                           00029200
&GENMT   SETB  1                            GENERATE MSGTYP FIELD       00029300
&I       SETA  &I+1                         INCR ENTRY COUNTER          00029400
         AIF   (&I LE &NUMENT).MSGTLOP      PROCESS NEXT ENTRY          00029500
.*       ALL ENTRIES PROCESSED                                          00029600
.*       PROCESS FLAGS                                                  00029700
&GENMT   SETB  (NOT &MTN)                   SUPRESS MT GEN IF MSGTYP=N  00029800
         AIF   (&MTN OR &MTY).MSGL8                                     00029900
         AGO   .ENDMSGT                                                 00030000
.*       ERROR PROCESSING                                               00030100
.MTERR   MNOTE 8,'MESSAGE TYPE FIELD INVALID - N IS ASSUMED'            00030200
&MTN     SETB  1                                                        00030300
&MTY     SETB  0                                                        00030400
.MSGL8   ANOP                               TURN OFF ALL FLAGS          00030500
&MT(1)   SETB  0                                                        00030600
&MT(2)   SETB  0                                                        00030700
&MT(3)   SETB  0                                                        00030800
&MT(5)   SETB  0                                                        00030900
&MT(6)   SETB  0                                                        00031000
.ENDMSGT ANOP                                                           00031100
.********************************************************************** 00031200
.*                                                                      00031300
.*       PROCESS MCSFLAG PARAMETERS                                     00031400
.*       DETERMINE IF MCSFLAG PARAMETERS HAVE BEEN SPECIFIED            00031500
.*       PARAMETERS -                                                   00031600
.*       REG0     - MSG TO CONSOLE WITH SOURCE ID IN R0                 00031700
.*       RESP     - WTO IS IMMEDIATE COMMAND RESPONSE                   00031800
.*       REPLY    - WTO IS A REPLY TO A WTOR                            00031900
.*       BRDCAST  - MSG TO BE BROADCAST TO ALL ACTIVE CONSOLES          00032000
.*       HRDCOPY  - MSG TO BE QUEUED FOR HARDCOPY ONLY                  00032100
.*       QREG0    - MSG TO BE QUEUED UNCONDITIONALLY TO CON ID IN R0    00032200
.*       NOTIME   - TIME IS NOT TO BE APPENDED TO MSG  TER              00032300
.*       NOCPY    - IF WTO OR WTOR IS ISSUED IN SUPERVISOR STATE        00032400
.*                  THEN DO NOT QUEUE FOR HARDCOPY                      00032500
.*                                                                      00032600
.********************************************************************** 00032700
         AIF   (T'&MCSFLAG EQ 'O').ENDMCS    MCSFLAG PARAMS SPECIFIED ? 00032800
&I       SETA  1                    SET LIST INDEX                      00032900
&NUMENT  SETA  N'&MCSFLAG           NUMBER OF ENTRIES                   00033000
.MCLOOP  ANOP                       START LOOP THROUGH PARAMETERS       00033100
         AIF   ('&MCSFLAG(&I)' NE 'REG0').MCL1                          00033200
         AIF   (&MC(2)).MCERR       REG0 ALREADY CODED ?                00033300
&MC(2)   SETB  1                    TURN ON REG0 (WPLMCSFB)             00033400
         AGO   .NEXTMC                                                  00033500
.MCL1    ANOP                                                           00033600
         AIF   ('&MCSFLAG(&I)' NE 'RESP').MCL2                          00033700
         AIF   (&MC(3)).MCERR       RESP ALREADY CODED ?                00033800
&MC(3)   SETB  1                    TURN ON RESP (WPLMCSFC)             00033900
         AGO   .NEXTMC                                                  00034000
.MCL2    ANOP                                                           00034100
         AIF   ('&MCSFLAG(&I)' NE 'REPLY').MCL3                         00034200
         AIF   (&MC(5)).MCERR       REPLYG0 ALREADY CODED ?             00034300
&MC(5)   SETB  1                    TURN ON REPLY (WPLMCSFE)            00034400
         AGO   .NEXTMC                                                  00034500
.MCL3    ANOP                                                           00034600
         AIF   ('&MCSFLAG(&I)' NE 'BRDCAST').MCL4                       00034700
         AIF   (&MC(6)).MCERR       BRDCAST ALREADY CODED ?             00034800
&MC(6)   SETB  1                    TURN ON BRDCAST (WPLMCSFF)          00034900
         AGO   .NEXTMC                                                  00035000
.MCL4    ANOP                                                           00035100
         AIF   ('&MCSFLAG(&I)' NE 'HRDCPY').MCL5                        00035200
         AIF   (&MC(7)).MCERR       HRDCPY ALREADY CODED ?              00035300
&MC(7)   SETB  1                    TURN ON HRDCPY (WPLMCSFG)           00035400
         AGO   .NEXTMC                                                  00035500
.MCL5    ANOP                                                           00035600
         AIF   ('&MCSFLAG(&I)' NE 'QREG0').MCL6                         00035700
         AIF   (&MC(8)).MCERR       QREG0 ALREADY CODED ?               00035800
&MC(8)   SETB  1                    TURN ON QREG0 (WPLMCSFH)            00035900
         AGO   .NEXTMC                                                  00036000
.MCL6    ANOP                                                           00036100
         AIF   ('&MCSFLAG(&I)' NE 'NOTIME').MCL7                        00036200
         AIF   (&MC(9)).MCERR       NOTIME ALREADY CODED ?              00036300
&MC(9)   SETB  1                    TURN ON NOTIME (WPLMCSFI)           00036400
         AGO   .NEXTMC                                                  00036500
.MCL7    ANOP                                                           00036600
         AIF   ('&MCSFLAG(&I)' NE 'NOCPY').MCERR                        00036700
         AIF   (&MC(14)).MCERR      NOTIME ALREADY CODED ?              00036800
&MC(14)  SETB  1                    TURN ON NOTTIME (WPLMCSFN)          00036900
         AGO   .NEXTMC                                                  00037000